examples/test_perturbation_outputs/pert_min_cost/pglib_opf_case24_ieee_rts.m
%% MATPOWER Case Format : Version 2
function mpc = pglib_opf_case24_ieee_rts
mpc.version = '2';

%%-----  Power Flow Data  -----%%
%% system MVA base
mpc.baseMVA = 100.0;
%% bus data
%    bus_i    type    Pd    Qd    Gs    Bs    area    Vm    Va    baseKV    zone    Vmax    Vmin
mpc.bus = [
	1	2	108.0	22.0	0.0	0.0	1	1.0	0.0	138.0	1	1.05	0.95				
	2	2	97.0	20.0	0.0	0.0	1	1.0	0.0	138.0	1	1.05	0.95				
	3	1	180.0	37.0	0.0	0.0	1	1.0	0.0	138.0	1	1.05	0.95				
	4	1	74.0	15.0	0.0	0.0	1	1.0	0.0	138.0	1	1.05	0.95				
	5	1	71.0	14.000000000000002	0.0	0.0	1	1.0	0.0	138.0	1	1.05	0.95				
	6	1	136.0	28.000000000000004	0.0	-100.0	2	1.0	0.0	138.0	1	1.05	0.95				
	7	2	125.0	25.0	0.0	0.0	2	1.0	0.0	138.0	1	1.05	0.95				
	8	1	171.0	35.0	0.0	0.0	2	1.0	0.0	138.0	1	1.05	0.95				
	9	1	175.0	36.0	0.0	0.0	1	1.0	0.0	138.0	1	1.05	0.95				
	10	1	195.0	40.0	0.0	0.0	2	1.0	0.0	138.0	1	1.05	0.95				
	11	1	0.0	0.0	0.0	0.0	3	1.0	0.0	230.0	1	1.05	0.95				
	12	1	0.0	0.0	0.0	0.0	3	1.0	0.0	230.0	1	1.05	0.95				
	13	3	265.0	54.0	0.0	0.0	3	1.0	0.0	230.0	1	1.05	0.95				
	14	2	194.0	39.0	0.0	0.0	3	1.0	0.0	230.0	1	1.05	0.95				
	15	2	317.0	64.0	0.0	0.0	4	1.0	0.0	230.0	1	1.05	0.95				
	16	2	100.0	20.0	0.0	0.0	4	1.0	0.0	230.0	1	1.05	0.95				
	17	1	0.0	0.0	0.0	0.0	4	1.0	0.0	230.0	1	1.05	0.95				
	18	2	333.0	68.0	0.0	0.0	4	1.0	0.0	230.0	1	1.05	0.95				
	19	1	181.0	37.0	0.0	0.0	3	1.0	0.0	230.0	1	1.05	0.95				
	20	1	128.0	26.0	0.0	0.0	3	1.0	0.0	230.0	1	1.05	0.95				
	21	2	0.0	0.0	0.0	0.0	4	1.0	0.0	230.0	1	1.05	0.95				
	22	2	0.0	0.0	0.0	0.0	4	1.0	0.0	230.0	1	1.05	0.95				
	23	2	0.0	0.0	0.0	0.0	3	1.0	0.0	230.0	1	1.05	0.95				
	24	1	0.0	0.0	0.0	0.0	4	1.0	0.0	230.0	1	1.05	0.95				
];

%% generator data
%    bus    Pg    Qg    Qmax    Qmin    Vg    mBase    status    Pmax    Pmin    Pc1    Pc2    Qc1min    Qc1max    Qc2min    Qc2max    ramp_agc    ramp_10    ramp_30    ramp_q    apf
mpc.gen = [
	1	18.0	5.0	10.0	0.0	1.0	100.0	1	20.0	16.0															
	1	18.0	5.0	10.0	0.0	1.0	100.0	1	20.0	16.0															
	1	45.6	2.5	30.0	-25.0	1.0	100.0	1	76.0	15.2															
	1	45.6	2.5	30.0	-25.0	1.0	100.0	1	76.0	15.2															
	2	18.0	5.0	10.0	0.0	1.0	100.0	1	20.0	16.0															
	2	18.0	5.0	10.0	0.0	1.0	100.0	1	20.0	16.0															
	2	45.6	2.5	30.0	-25.0	1.0	100.0	1	76.0	15.2															
	2	45.6	2.5	30.0	-25.0	1.0	100.0	1	76.0	15.2															
	7	62.5	30.0	60.0	0.0	1.0	100.0	1	100.0	25.0															
	7	62.5	30.0	60.0	0.0	1.0	100.0	1	100.0	25.0															
	7	62.5	30.0	60.0	0.0	1.0	100.0	1	100.0	25.0															
	13	133.0	40.0	80.0	0.0	1.0	100.0	1	197.0	69.0															
	13	133.0	40.0	80.0	0.0	1.0	100.0	1	197.0	69.0															
	13	133.0	40.0	80.0	0.0	1.0	100.0	1	197.0	69.0															
	14	0.0	75.0	200.0	-50.0	1.0	100.0	1	0.0	0.0															
	15	7.200000000000001	3.0	6.0	0.0	1.0	100.0	1	12.0	2.4															
	15	7.200000000000001	3.0	6.0	0.0	1.0	100.0	1	12.0	2.4															
	15	7.200000000000001	3.0	6.0	0.0	1.0	100.0	1	12.0	2.4															
	15	7.200000000000001	3.0	6.0	0.0	1.0	100.0	1	12.0	2.4															
	15	7.200000000000001	3.0	6.0	0.0	1.0	100.0	1	12.0	2.4															
	15	104.65	15.0	80.0	-50.0	1.0	100.0	1	155.0	54.29999999999999															
	16	104.65	15.0	80.0	-50.0	1.0	100.0	1	155.0	54.29999999999999															
	18	250.0	75.0	200.0	-50.0	1.0	100.0	1	400.0	100.0															
	21	250.0	75.0	200.0	-50.0	1.0	100.0	1	400.0	100.0															
	22	30.0	3.0	16.0	-10.0	1.0	100.0	1	50.0	10.0															
	22	30.0	3.0	16.0	-10.0	1.0	100.0	1	50.0	10.0															
	22	30.0	3.0	16.0	-10.0	1.0	100.0	1	50.0	10.0															
	22	30.0	3.0	16.0	-10.0	1.0	100.0	1	50.0	10.0															
	22	30.0	3.0	16.0	-10.0	1.0	100.0	1	50.0	10.0															
	22	30.0	3.0	16.0	-10.0	1.0	100.0	1	50.0	10.0															
	23	104.65	15.0	80.0	-50.0	1.0	100.0	1	155.0	54.29999999999999															
	23	104.65	15.0	80.0	-50.0	1.0	100.0	1	155.0	54.29999999999999															
	23	245.00000000000003	62.5	150.0	-25.0	1.0	100.0	1	350.0	140.0															
];

%% branch data
%    f_bus    t_bus    r    x    b    rateA    rateB    rateC    ratio    angle    status    angmin    angmax
mpc.branch = [
	1	2	0.0026097244275713216	0.013951988285735373	0.5011377713005793	175.0	193.0	200.0	0	0	1	-29.999999999999996	29.999999999999996								
	1	3	0.05578039393097258	0.2157659190880058	0.0013888806160718772	175.0	208.0	220.00000000000003	0	0	1	-29.999999999999996	29.999999999999996								
	1	5	0.021644193480352448	0.08389607104221271	0.0013890677200093914	175.0	208.0	220.00000000000003	0	0	1	-29.999999999999996	29.999999999999996								
	2	4	0.0326014953327306	0.1259332151558134	0.12565394029369217	175.0	208.0	220.00000000000003	0	0	1	-29.999999999999996	29.999999999999996								
	2	6	0.05050514974021776	0.19511043743989112	0.08840626982778077	175.0	208.0	220.00000000000003	0	0	1	-29.999999999999996	29.999999999999996								
	3	9	0.031253485825278836	0.12075210427640275	0.0470829196567425	175.0	208.0	220.00000000000003	0	0	1	-29.999999999999996	29.999999999999996								
	3	24	0.002261356209444491	0.08249034014367404	0.016672852488338837	400.0	509.99999999999994	600.0	1.03	0.0	1	-29.999999999999996	29.999999999999996								
	4	9	0.02795488924356652	0.10816873185313894	0.001388930476451659	175.0	208.0	220.00000000000003	0	0	1	-29.999999999999996	29.999999999999996								
	5	10	0.022481014701017998	0.08706463147724462	0.008177840272314016	175.0	208.0	220.00000000000003	0	0	1	-29.999999999999996	29.999999999999996								
	6	10	0.013945294943514803	0.06069714704774652	2.481380247733085	175.0	193.0	200.0	0	0	1	-29.999999999999996	29.999999999999996								
	7	8	0.01592160866494443	0.061483444777483034	0.0013888610196815111	175.0	208.0	220.00000000000003	0	0	1	-29.999999999999996	29.999999999999996								
	8	9	0.04293198075409098	0.1659969558838017	0.05708301137031704	175.0	208.0	220.00000000000003	0	0	1	-29.999999999999996	29.999999999999996								
	8	10	0.044908830215633334	0.1736404651692552	0.06543013400970604	175.0	208.0	220.00000000000003	0	0	1	-29.999999999999996	29.999999999999996								
	9	11	0.002108103156742235	0.07689993566947645	0.10974600326460392	400.0	509.99999999999994	600.0	1.03	0.0	1	-29.999999999999996	29.999999999999996								
	9	12	0.002230900494289291	0.08137936875524934	0.0013889997749798304	400.0	509.99999999999994	600.0	1.03	0.0	1	-29.999999999999996	29.999999999999996								
	10	11	0.0024796388598271202	0.09045291094598197	0.08940008147972532	400.0	509.99999999999994	600.0	1.02	0.0	1	-29.999999999999996	29.999999999999996								
	10	12	0.0023306309030994704	0.08501736023702183	0.0013888530328092785	400.0	509.99999999999994	600.0	1.02	0.0	1	-29.999999999999996	29.999999999999996								
	11	13	0.005900766278014788	0.04604532373446081	0.001388952710085367	500.0	600.0	625.0	0	0	1	-29.999999999999996	29.999999999999996								
	11	14	0.005388772336616504	0.04171308956088305	0.19029957574142164	500.0	600.0	625.0	0	0	1	-29.999999999999996	29.999999999999996								
	12	13	0.006132923477960695	0.0478569110630025	0.08684654257633777	500.0	600.0	625.0	0	0	1	-29.999999999999996	29.999999999999996								
	12	23	0.01224860405931713	0.09542057670612625	0.16992711146728193	500.0	600.0	625.0	0	0	1	-29.999999999999996	29.999999999999996								
	13	23	0.011253476358604981	0.08769600939107276	0.25701610403832026	500.0	600.0	625.0	0	0	1	-29.999999999999996	29.999999999999996								
	14	16	0.004995557067354971	0.03886543397851143	0.06215255246791674	500.0	600.0	625.0	0	0	1	-29.999999999999996	29.999999999999996								
	15	16	0.002184540714590858	0.01717843380056169	0.0640462305491063	500.0	600.0	625.0	0	0	1	-29.999999999999996	29.999999999999996								
	15	21	0.006290236925944674	0.04892406497033953	0.07570251240744644	500.0	600.0	625.0	0	0	1	-29.999999999999996	29.999999999999996								
	15	21	0.006365093336428396	0.04950628149594146	0.0013889967450230417	500.0	600.0	625.0	0	0	1	-29.999999999999996	29.999999999999996								
	15	24	0.006855393763846876	0.053103721839365146	0.0699498063217231	500.0	600.0	625.0	0	0	1	-29.999999999999996	29.999999999999996								
	16	17	0.0033039806656109246	0.025931242192237275	0.00138936843776183	500.0	600.0	625.0	0	0	1	-29.999999999999996	29.999999999999996								
	16	19	0.0030058483104596283	0.023145031989265534	0.03724371113111324	500.0	600.0	625.0	0	0	1	-29.999999999999996	29.999999999999996								
	17	18	0.0018006054789515159	0.014404843831295077	0.050821225065867386	500.0	600.0	625.0	0	0	1	-29.999999999999996	29.999999999999996								
	17	22	0.013661151054894863	0.1065569781146997	0.20247995768516433	500.0	600.0	625.0	0	0	1	-29.999999999999996	29.999999999999996								
	18	21	0.003296036606789031	0.025868893366581776	0.08495256937392996	500.0	600.0	625.0	0	0	1	-29.999999999999996	29.999999999999996								
	18	21	0.0032751466108515153	0.02570493855001678	0.1169299273815043	500.0	600.0	625.0	0	0	1	-29.999999999999996	29.999999999999996								
	19	20	0.005094148035943653	0.039554561213984527	0.10020633982681214	500.0	600.0	625.0	0	0	1	-29.999999999999996	29.999999999999996								
	19	20	0.005072323460107932	0.03938509980169586	0.1071683210354975	500.0	600.0	625.0	0	0	1	-29.999999999999996	29.999999999999996								
	20	23	0.0028019763831543245	0.021615246383343816	0.03493036753183779	500.0	600.0	625.0	0	0	1	-29.999999999999996	29.999999999999996								
	20	23	0.0027982742158906425	0.021586686807313772	0.11752546359301062	500.0	600.0	625.0	0	0	1	-29.999999999999996	29.999999999999996								
	21	22	0.008618105285232372	0.06716178598890786	0.0018044595256902752	500.0	600.0	625.0	0	0	1	-29.999999999999996	29.999999999999996								
];

%%-----  OPF Data  -----%%
%% cost data
%    1    startup    shutdown    n    x1    y1    ...    xn    yn
%    2    startup    shutdown    n    c(n-1)    ...    c0
mpc.gencost = [
	2	1500.0	0.0	3	0.0	130.0	400.6849
	2	1500.0	0.0	3	0.0	130.0	400.6849
	2	1500.0	0.0	3	0.014142	16.0811	212.3076
	2	1500.0	0.0	3	0.014142	16.0811	212.3076
	2	1500.0	0.0	3	0.0	130.0	400.6849
	2	1500.0	0.0	3	0.0	130.0	400.6849
	2	1500.0	0.0	3	0.014142	16.0811	212.3076
	2	1500.0	0.0	3	0.014142	16.0811	212.3076
	2	1500.0	0.0	3	0.052672	43.6615	781.521
	2	1500.0	0.0	3	0.052672	43.6615	781.521
	2	1500.0	0.0	3	0.052672	43.6615	781.521
	2	1500.0	0.0	3	0.007170000000000001	48.5804	832.7575
	2	1500.0	0.0	3	0.007170000000000001	48.5804	832.7575
	2	1500.0	0.0	3	0.007170000000000001	48.5804	832.7575
	2	1500.0	0.0	3	0.0	0.0	0.0
	2	1500.0	0.0	3	0.328412	56.564	86.3852
	2	1500.0	0.0	3	0.328412	56.564	86.3852
	2	1500.0	0.0	3	0.328412	56.564	86.3852
	2	1500.0	0.0	3	0.328412	56.564	86.3852
	2	1500.0	0.0	3	0.328412	56.564	86.3852
	2	1500.0	0.0	3	0.008342	12.3883	382.2391
	2	1500.0	0.0	3	0.008342	12.3883	382.2391
	2	1500.0	0.0	3	0.000213	4.4231	395.3749
	2	1500.0	0.0	3	0.000213	4.4231	395.3749
	2	1500.0	0.0	3	0.0	0.001	0.001
	2	1500.0	0.0	3	0.0	0.001	0.001
	2	1500.0	0.0	3	0.0	0.001	0.001
	2	1500.0	0.0	3	0.0	0.001	0.001
	2	1500.0	0.0	3	0.0	0.001	0.001
	2	1500.0	0.0	3	0.0	0.001	0.001
	2	1500.0	0.0	3	0.008342	12.3883	382.2391
	2	1500.0	0.0	3	0.008342	12.3883	382.2391
	2	1500.0	0.0	3	0.004895000000000001	11.8495	665.1094
];

